
OS:Version,
  {3c716721-d111-41e2-ba18-6b2e0461cc6f}, !- Handle
  1.6.0;                                  !- Version Identifier

OS:Material,
  {ca8a182d-6baa-4755-a6c3-25cf72713114}, !- Handle
  1/2IN Gypsum,                           !- Name
  Smooth,                                 !- Roughness
  0.0127,                                 !- Thickness {m}
  0.16,                                   !- Conductivity {W/m-K}
  784.9,                                  !- Density {kg/m3}
  830.000000000001,                       !- Specific Heat {J/kg-K}
  0.9,                                    !- Thermal Absorptance
  0.4,                                    !- Solar Absorptance
  0.4;                                    !- Visible Absorptance

OS:StandardsInformation:Material,
  {e88b490e-e06f-4d02-9f21-37adaed2f30e}, !- Handle
  {ca8a182d-6baa-4755-a6c3-25cf72713114}; !- Material Name

OS:Material,
  {9facc18a-9c71-4213-a1a4-147911a3caed}, !- Handle
  Roof Membrane,                          !- Name
  VeryRough,                              !- Roughness
  0.0095,                                 !- Thickness {m}
  0.16,                                   !- Conductivity {W/m-K}
  1121.29,                                !- Density {kg/m3}
  1460,                                   !- Specific Heat {J/kg-K}
  0.9,                                    !- Thermal Absorptance
  0.7,                                    !- Solar Absorptance
  0.7;                                    !- Visible Absorptance

OS:StandardsInformation:Material,
  {029b9064-3f95-4b71-b0f7-9f609173b0c6}, !- Handle
  {9facc18a-9c71-4213-a1a4-147911a3caed}; !- Material Name

OS:Material,
  {2c828f3e-f49f-4e3e-a380-978467c09016}, !- Handle
  Metal Decking,                          !- Name
  MediumSmooth,                           !- Roughness
  0.0015,                                 !- Thickness {m}
  45.006,                                 !- Conductivity {W/m-K}
  7680,                                   !- Density {kg/m3}
  418.4,                                  !- Specific Heat {J/kg-K}
  0.9,                                    !- Thermal Absorptance
  0.6,                                    !- Solar Absorptance
  0.6;                                    !- Visible Absorptance

OS:StandardsInformation:Material,
  {53b788fc-4146-49a6-8c5b-42caf7d54100}, !- Handle
  {2c828f3e-f49f-4e3e-a380-978467c09016}; !- Material Name

OS:Construction,
  {2966d274-5c1f-41e1-8a45-3fb51c736df3}, !- Handle
  ASHRAE 189.1-2009 ExtRoof IEAD ClimateZone 2-5, !- Name
  ,                                       !- Surface Rendering Name
  {9facc18a-9c71-4213-a1a4-147911a3caed}, !- Layer 1
  {46bc40c1-8265-4ecb-b865-544f069a663d}, !- Layer 2
  {2c828f3e-f49f-4e3e-a380-978467c09016}; !- Layer 3

OS:StandardsInformation:Construction,
  {4e8fc60e-dddc-43b7-8ddd-bfb6cce29cc9}, !- Handle
  {2966d274-5c1f-41e1-8a45-3fb51c736df3}, !- Construction Name
  ExteriorRoof,                           !- Intended Surface Type
  IEAD,                                   !- Standards Construction Type
  ,                                       !- Perturbable Layer
  ,                                       !- Perturbable Layer Type
  ,                                       !- Other Perturbable Layer Type
  ASHRAE 189.1-2009;                      !- Construction Standard

OS:Material,
  {46bc40c1-8265-4ecb-b865-544f069a663d}, !- Handle
  Roof Insulation [21],                   !- Name
  MediumRough,                            !- Roughness
  0.2105,                                 !- Thickness {m}
  0.049,                                  !- Conductivity {W/m-K}
  265,                                    !- Density {kg/m3}
  836.800000000001,                       !- Specific Heat {J/kg-K}
  0.9,                                    !- Thermal Absorptance
  0.7,                                    !- Solar Absorptance
  0.7;                                    !- Visible Absorptance

OS:StandardsInformation:Material,
  {643ec455-a172-4bf4-bbf3-71fa1f9c86d5}, !- Handle
  {46bc40c1-8265-4ecb-b865-544f069a663d}; !- Material Name

OS:Material,
  {0c873c88-2b7c-4985-8ef5-077de01b0af9}, !- Handle
  1IN Stucco,                             !- Name
  Smooth,                                 !- Roughness
  0.0253,                                 !- Thickness {m}
  0.691799999999999,                      !- Conductivity {W/m-K}
  1858,                                   !- Density {kg/m3}
  836.999999999999,                       !- Specific Heat {J/kg-K}
  0.9,                                    !- Thermal Absorptance
  0.92,                                   !- Solar Absorptance
  0.92;                                   !- Visible Absorptance

OS:StandardsInformation:Material,
  {6d72b06c-ae8b-4275-a577-d156edf5cdf8}, !- Handle
  {0c873c88-2b7c-4985-8ef5-077de01b0af9}; !- Material Name

OS:Material,
  {195ad2f6-dd82-4910-85b0-577597739b75}, !- Handle
  8IN Concrete HW,                        !- Name
  MediumRough,                            !- Roughness
  0.2033,                                 !- Thickness {m}
  1.72959999999999,                       !- Conductivity {W/m-K}
  2242.99999999999,                       !- Density {kg/m3}
  836.999999999999,                       !- Specific Heat {J/kg-K}
  0.9,                                    !- Thermal Absorptance
  0.65,                                   !- Solar Absorptance
  0.65;                                   !- Visible Absorptance

OS:StandardsInformation:Material,
  {8cd2144a-80bf-4969-96ea-cb36ea374b2a}, !- Handle
  {195ad2f6-dd82-4910-85b0-577597739b75}; !- Material Name

OS:Construction,
  {9e08e35f-9d89-4c5b-ab35-2f430bbb8fdd}, !- Handle
  ASHRAE 189.1-2009 ExtWall Mass ClimateZone 5, !- Name
  ,                                       !- Surface Rendering Name
  {0c873c88-2b7c-4985-8ef5-077de01b0af9}, !- Layer 1
  {195ad2f6-dd82-4910-85b0-577597739b75}, !- Layer 2
  {758fffd5-6481-4074-8957-b3562fee0c27}, !- Layer 3
  {ca8a182d-6baa-4755-a6c3-25cf72713114}; !- Layer 4

OS:StandardsInformation:Construction,
  {8dc4e888-5dc4-46f3-9082-61bc5f715958}, !- Handle
  {9e08e35f-9d89-4c5b-ab35-2f430bbb8fdd}, !- Construction Name
  ExteriorWall,                           !- Intended Surface Type
  Mass,                                   !- Standards Construction Type
  ,                                       !- Perturbable Layer
  ,                                       !- Perturbable Layer Type
  ,                                       !- Other Perturbable Layer Type
  ASHRAE 189.1-2009;                      !- Construction Standard

OS:Material,
  {758fffd5-6481-4074-8957-b3562fee0c27}, !- Handle
  Wall Insulation [40],                   !- Name
  MediumRough,                            !- Roughness
  0.0793999999999999,                     !- Thickness {m}
  0.0432,                                 !- Conductivity {W/m-K}
  91,                                     !- Density {kg/m3}
  836.999999999999,                       !- Specific Heat {J/kg-K}
  0.9,                                    !- Thermal Absorptance
  0.5,                                    !- Solar Absorptance
  0.5;                                    !- Visible Absorptance

OS:StandardsInformation:Material,
  {33a02fa0-6062-4a7b-b4d8-21d3a1ae1eda}, !- Handle
  {758fffd5-6481-4074-8957-b3562fee0c27}; !- Material Name

OS:Construction,
  {2f96d128-cb63-4010-982d-54d42157576a}, !- Handle
  ASHRAE 189.1-2009 ExtWindow ClimateZone 4-5, !- Name
  ,                                       !- Surface Rendering Name
  {232df2c3-b36b-45f1-8f6a-f4ac98c53991}; !- Layer 1

OS:StandardsInformation:Construction,
  {cb6308f5-a6c9-48ef-a238-331b67dc1cf7}, !- Handle
  {2f96d128-cb63-4010-982d-54d42157576a}, !- Construction Name
  ExteriorWindow,                         !- Intended Surface Type
  ,                                       !- Standards Construction Type
  ,                                       !- Perturbable Layer
  ,                                       !- Perturbable Layer Type
  ,                                       !- Other Perturbable Layer Type
  ASHRAE 189.1-2009;                      !- Construction Standard

OS:WindowMaterial:Glazing,
  {232df2c3-b36b-45f1-8f6a-f4ac98c53991}, !- Handle
  Theoretical Glass [207],                !- Name
  SpectralAverage,                        !- Optical Data Type
  ,                                       !- Window Glass Spectral Data Set Name
  0.00299999999999999,                    !- Thickness {m}
  0.3311,                                 !- Solar Transmittance at Normal Incidence
  0.6189,                                 !- Front Side Solar Reflectance at Normal Incidence
  0,                                      !- Back Side Solar Reflectance at Normal Incidence
  0.44,                                   !- Visible Transmittance at Normal Incidence
  0.51,                                   !- Front Side Visible Reflectance at Normal Incidence
  0,                                      !- Back Side Visible Reflectance at Normal Incidence
  0,                                      !- Infrared Transmittance at Normal Incidence
  0.9,                                    !- Front Side Infrared Hemispherical Emissivity
  0.9,                                    !- Back Side Infrared Hemispherical Emissivity
  0.0133,                                 !- Conductivity {W/m-K}
  1,                                      !- Dirt Correction Factor for Solar and Visible Transmittance
  No;                                     !- Solar Diffusing

OS:StandardsInformation:Material,
  {427b4a4c-9cca-4fe0-be11-e67bb3a93687}, !- Handle
  {232df2c3-b36b-45f1-8f6a-f4ac98c53991}; !- Material Name

OS:Material,
  {8d82b189-0560-4416-95d8-1b6777941c6a}, !- Handle
  MAT-CC05 4 HW CONCRETE,                 !- Name
  Rough,                                  !- Roughness
  0.1016,                                 !- Thickness {m}
  1.311,                                  !- Conductivity {W/m-K}
  2240,                                   !- Density {kg/m3}
  836.800000000001,                       !- Specific Heat {J/kg-K}
  0.9,                                    !- Thermal Absorptance
  0.85,                                   !- Solar Absorptance
  0.85;                                   !- Visible Absorptance

OS:StandardsInformation:Material,
  {d6303387-08b8-4ced-82f1-536dabafc076}, !- Handle
  {8d82b189-0560-4416-95d8-1b6777941c6a}; !- Material Name

OS:Construction,
  {87158421-6061-4c5d-9a72-e49435644103}, !- Handle
  ExtSlabCarpet 4in ClimateZone 1-8,      !- Name
  ,                                       !- Surface Rendering Name
  {8d82b189-0560-4416-95d8-1b6777941c6a}, !- Layer 1
  {4dc20520-fe20-46f7-bd42-30ac9642cf0d}; !- Layer 2

OS:StandardsInformation:Construction,
  {3ba03d66-8a54-4df3-8608-b05ae111cd1d}, !- Handle
  {87158421-6061-4c5d-9a72-e49435644103}, !- Construction Name
  ExteriorFloor,                          !- Intended Surface Type
  ,                                       !- Standards Construction Type
  ,                                       !- Perturbable Layer
  ,                                       !- Perturbable Layer Type
  ,                                       !- Other Perturbable Layer Type
  ;                                       !- Construction Standard

OS:Material:NoMass,
  {4dc20520-fe20-46f7-bd42-30ac9642cf0d}, !- Handle
  CP02 CARPET PAD,                        !- Name
  Smooth,                                 !- Roughness
  0.1,                                    !- Thermal Resistance {m2-K/W}
  0.9,                                    !- Thermal Absorptance
  0.8,                                    !- Solar Absorptance
  0.8;                                    !- Visible Absorptance

OS:StandardsInformation:Material,
  {05412f5a-3b8a-4175-ba46-a302f01d20ff}, !- Handle
  {4dc20520-fe20-46f7-bd42-30ac9642cf0d}; !- Material Name

OS:Construction,
  {17e9a255-107a-4aa3-8277-f0e7b81ee9bd}, !- Handle
  Exterior Door,                          !- Name
  ,                                       !- Surface Rendering Name
  {c7879ac6-20fc-41b6-8d49-7c89fbcbbdd6}, !- Layer 1
  {8ac77ae0-10d6-4d1f-8e55-b8983565f104}; !- Layer 2

OS:StandardsInformation:Construction,
  {ef704246-5d7e-45a4-b54e-59675c0335e2}, !- Handle
  {17e9a255-107a-4aa3-8277-f0e7b81ee9bd}, !- Construction Name
  ExteriorDoor,                           !- Intended Surface Type
  ,                                       !- Standards Construction Type
  ,                                       !- Perturbable Layer
  ,                                       !- Perturbable Layer Type
  ,                                       !- Other Perturbable Layer Type
  ;                                       !- Construction Standard

OS:Material,
  {c7879ac6-20fc-41b6-8d49-7c89fbcbbdd6}, !- Handle
  F08 Metal surface,                      !- Name
  Smooth,                                 !- Roughness
  0.0008,                                 !- Thickness {m}
  45.2800000000001,                       !- Conductivity {W/m-K}
  7823.99999999999,                       !- Density {kg/m3}
  500,                                    !- Specific Heat {J/kg-K}
  0.9,                                    !- Thermal Absorptance
  0.7,                                    !- Solar Absorptance
  0.7;                                    !- Visible Absorptance

OS:StandardsInformation:Material,
  {11ec5fc2-954b-4eb7-adb2-8ff61d887d5c}, !- Handle
  {c7879ac6-20fc-41b6-8d49-7c89fbcbbdd6}; !- Material Name

OS:Material,
  {8ac77ae0-10d6-4d1f-8e55-b8983565f104}, !- Handle
  I01 25mm insulation board,              !- Name
  MediumRough,                            !- Roughness
  0.0254,                                 !- Thickness {m}
  0.03,                                   !- Conductivity {W/m-K}
  43,                                     !- Density {kg/m3}
  1210,                                   !- Specific Heat {J/kg-K}
  0.9,                                    !- Thermal Absorptance
  0.6,                                    !- Solar Absorptance
  0.6;                                    !- Visible Absorptance

OS:StandardsInformation:Material,
  {35c4c96d-8522-4383-b560-e63fbc4ed873}, !- Handle
  {8ac77ae0-10d6-4d1f-8e55-b8983565f104}; !- Material Name

OS:Construction,
  {d1c25830-88c3-443d-84a8-6045843be8ce}, !- Handle
  Interior Ceiling,                       !- Name
  ,                                       !- Surface Rendering Name
  {a9d9cc8c-4b5f-4880-b0b8-17713cc66c28}, !- Layer 1
  {c85cbf2c-af82-4094-aff6-14e14caa371d}, !- Layer 2
  {bf649542-6133-48a7-b205-75c1ced8da3c}; !- Layer 3

OS:StandardsInformation:Construction,
  {5ef69649-111d-45f3-9560-a80660307cba}, !- Handle
  {d1c25830-88c3-443d-84a8-6045843be8ce}, !- Construction Name
  InteriorCeiling,                        !- Intended Surface Type
  ,                                       !- Standards Construction Type
  ,                                       !- Perturbable Layer
  ,                                       !- Perturbable Layer Type
  ,                                       !- Other Perturbable Layer Type
  ;                                       !- Construction Standard

OS:Material,
  {a9d9cc8c-4b5f-4880-b0b8-17713cc66c28}, !- Handle
  M11 100mm lightweight concrete,         !- Name
  MediumRough,                            !- Roughness
  0.1016,                                 !- Thickness {m}
  0.53,                                   !- Conductivity {W/m-K}
  1280,                                   !- Density {kg/m3}
  840.000000000002,                       !- Specific Heat {J/kg-K}
  0.9,                                    !- Thermal Absorptance
  0.5,                                    !- Solar Absorptance
  0.5;                                    !- Visible Absorptance

OS:StandardsInformation:Material,
  {3e59dda5-85d1-440d-ac32-272e6a37eeb0}, !- Handle
  {a9d9cc8c-4b5f-4880-b0b8-17713cc66c28}; !- Material Name

OS:Material:AirGap,
  {c85cbf2c-af82-4094-aff6-14e14caa371d}, !- Handle
  F05 Ceiling air space resistance,       !- Name
  0.18;                                   !- Thermal Resistance {m2-K/W}

OS:StandardsInformation:Material,
  {1a1219a2-1f6f-4b60-bd38-beb647904285}, !- Handle
  {c85cbf2c-af82-4094-aff6-14e14caa371d}; !- Material Name

OS:Material,
  {bf649542-6133-48a7-b205-75c1ced8da3c}, !- Handle
  F16 Acoustic tile,                      !- Name
  MediumSmooth,                           !- Roughness
  0.0191,                                 !- Thickness {m}
  0.06,                                   !- Conductivity {W/m-K}
  368,                                    !- Density {kg/m3}
  590.000000000002,                       !- Specific Heat {J/kg-K}
  0.9,                                    !- Thermal Absorptance
  0.3,                                    !- Solar Absorptance
  0.3;                                    !- Visible Absorptance

OS:StandardsInformation:Material,
  {7cbc8c0c-5bfe-4c72-9938-f13e1b9e0b07}, !- Handle
  {bf649542-6133-48a7-b205-75c1ced8da3c}; !- Material Name

OS:Construction,
  {e899e931-f3d9-4474-8b76-f55bbbce1243}, !- Handle
  Interior Door,                          !- Name
  ,                                       !- Surface Rendering Name
  {3418ab04-79f2-4eef-9cb7-616ad25f7b4f}; !- Layer 1

OS:StandardsInformation:Construction,
  {49d68355-4c2c-41c2-a678-6e4e7dd85528}, !- Handle
  {e899e931-f3d9-4474-8b76-f55bbbce1243}, !- Construction Name
  InteriorDoor,                           !- Intended Surface Type
  ,                                       !- Standards Construction Type
  ,                                       !- Perturbable Layer
  ,                                       !- Perturbable Layer Type
  ,                                       !- Other Perturbable Layer Type
  ;                                       !- Construction Standard

OS:Material,
  {3418ab04-79f2-4eef-9cb7-616ad25f7b4f}, !- Handle
  G05 25mm wood,                          !- Name
  MediumSmooth,                           !- Roughness
  0.0254,                                 !- Thickness {m}
  0.15,                                   !- Conductivity {W/m-K}
  608,                                    !- Density {kg/m3}
  1630,                                   !- Specific Heat {J/kg-K}
  0.9,                                    !- Thermal Absorptance
  0.5,                                    !- Solar Absorptance
  0.5;                                    !- Visible Absorptance

OS:StandardsInformation:Material,
  {2767bc61-a249-4cd1-b12e-0a581f2fa795}, !- Handle
  {3418ab04-79f2-4eef-9cb7-616ad25f7b4f}; !- Material Name

OS:Construction,
  {cfd48570-64ea-4555-a2bf-2734e0ef5796}, !- Handle
  Interior Floor,                         !- Name
  ,                                       !- Surface Rendering Name
  {bf649542-6133-48a7-b205-75c1ced8da3c}, !- Layer 1
  {c85cbf2c-af82-4094-aff6-14e14caa371d}, !- Layer 2
  {a9d9cc8c-4b5f-4880-b0b8-17713cc66c28}; !- Layer 3

OS:StandardsInformation:Construction,
  {4da09766-4576-4a63-ba24-c6efaaf2ecbc}, !- Handle
  {cfd48570-64ea-4555-a2bf-2734e0ef5796}, !- Construction Name
  InteriorFloor,                          !- Intended Surface Type
  ,                                       !- Standards Construction Type
  ,                                       !- Perturbable Layer
  ,                                       !- Perturbable Layer Type
  ,                                       !- Other Perturbable Layer Type
  ;                                       !- Construction Standard

OS:Construction,
  {195f2789-e1a8-4185-9243-cc0464e3bac8}, !- Handle
  Interior Partition,                     !- Name
  ,                                       !- Surface Rendering Name
  {3418ab04-79f2-4eef-9cb7-616ad25f7b4f}; !- Layer 1

OS:StandardsInformation:Construction,
  {c0e63ddd-aca7-49b2-a848-00030e7afdae}, !- Handle
  {195f2789-e1a8-4185-9243-cc0464e3bac8}, !- Construction Name
  InteriorPartition,                      !- Intended Surface Type
  ,                                       !- Standards Construction Type
  ,                                       !- Perturbable Layer
  ,                                       !- Perturbable Layer Type
  ,                                       !- Other Perturbable Layer Type
  ;                                       !- Construction Standard

OS:Construction,
  {f5c7d4d5-fa1d-4dea-8f74-0ce810cc0ee9}, !- Handle
  Interior Wall,                          !- Name
  ,                                       !- Surface Rendering Name
  {d9a6d62e-94f7-4b91-b810-1851efb5b3d5}, !- Layer 1
  {7cf57300-4b20-4b6c-92be-fa014972875c}, !- Layer 2
  {d9a6d62e-94f7-4b91-b810-1851efb5b3d5}; !- Layer 3

OS:StandardsInformation:Construction,
  {1a06b6d8-4e93-459e-82c0-db3d3abfcd5f}, !- Handle
  {f5c7d4d5-fa1d-4dea-8f74-0ce810cc0ee9}, !- Construction Name
  InteriorWall,                           !- Intended Surface Type
  ,                                       !- Standards Construction Type
  ,                                       !- Perturbable Layer
  ,                                       !- Perturbable Layer Type
  ,                                       !- Other Perturbable Layer Type
  ;                                       !- Construction Standard

OS:Material,
  {d9a6d62e-94f7-4b91-b810-1851efb5b3d5}, !- Handle
  G01a 19mm gypsum board,                 !- Name
  MediumSmooth,                           !- Roughness
  0.019,                                  !- Thickness {m}
  0.16,                                   !- Conductivity {W/m-K}
  800,                                    !- Density {kg/m3}
  1090,                                   !- Specific Heat {J/kg-K}
  0.9,                                    !- Thermal Absorptance
  0.4,                                    !- Solar Absorptance
  0.4;                                    !- Visible Absorptance

OS:StandardsInformation:Material,
  {237246bd-7314-43a5-b05d-134a40959b72}, !- Handle
  {d9a6d62e-94f7-4b91-b810-1851efb5b3d5}; !- Material Name

OS:Material:AirGap,
  {7cf57300-4b20-4b6c-92be-fa014972875c}, !- Handle
  F04 Wall air space resistance,          !- Name
  0.15;                                   !- Thermal Resistance {m2-K/W}

OS:StandardsInformation:Material,
  {1159592c-8c2a-48f7-90ee-17691fbd7adc}, !- Handle
  {7cf57300-4b20-4b6c-92be-fa014972875c}; !- Material Name

OS:Construction,
  {bd0e1aed-b025-4b56-8812-42955e8b025e}, !- Handle
  Interior Window,                        !- Name
  ,                                       !- Surface Rendering Name
  {d966f6c9-541b-47b5-826f-2ab31b4225b8}; !- Layer 1

OS:StandardsInformation:Construction,
  {17dd7f6c-a57b-4ec8-8773-d9fb07b0842c}, !- Handle
  {bd0e1aed-b025-4b56-8812-42955e8b025e}, !- Construction Name
  InteriorWindow,                         !- Intended Surface Type
  ,                                       !- Standards Construction Type
  ,                                       !- Perturbable Layer
  ,                                       !- Perturbable Layer Type
  ,                                       !- Other Perturbable Layer Type
  ;                                       !- Construction Standard

OS:WindowMaterial:Glazing,
  {d966f6c9-541b-47b5-826f-2ab31b4225b8}, !- Handle
  Clear 3mm,                              !- Name
  SpectralAverage,                        !- Optical Data Type
  ,                                       !- Window Glass Spectral Data Set Name
  0.00299999999999999,                    !- Thickness {m}
  0.837,                                  !- Solar Transmittance at Normal Incidence
  0.075,                                  !- Front Side Solar Reflectance at Normal Incidence
  0,                                      !- Back Side Solar Reflectance at Normal Incidence
  0.898,                                  !- Visible Transmittance at Normal Incidence
  0.081,                                  !- Front Side Visible Reflectance at Normal Incidence
  0,                                      !- Back Side Visible Reflectance at Normal Incidence
  0,                                      !- Infrared Transmittance at Normal Incidence
  0.84,                                   !- Front Side Infrared Hemispherical Emissivity
  0.84,                                   !- Back Side Infrared Hemispherical Emissivity
  0.9,                                    !- Conductivity {W/m-K}
  1,                                      !- Dirt Correction Factor for Solar and Visible Transmittance
  No;                                     !- Solar Diffusing

OS:StandardsInformation:Material,
  {0010a9c4-8f03-4599-9606-8a86043d11eb}, !- Handle
  {d966f6c9-541b-47b5-826f-2ab31b4225b8}; !- Material Name

OS:Schedule:Ruleset,
  {3a73eac8-a4f3-4647-96d0-03405c56c643}, ! Handle
  Office Bldg Light,                      ! Name
  {df4eff6f-06db-4650-9c3b-30b07c3b692e}, ! Schedule Type Limits Name
  {cd0d5771-9a9c-48eb-b6f3-192194cae36b}, ! Default Day Schedule Name
  {d044b91d-951f-40c5-9cba-e5fe8e398072}, ! Summer Design Day Schedule Name
  {cb89e185-4f41-42f6-8d6f-bf96b4757d2d}; ! Winter Design Day Schedule Name

OS:ScheduleTypeLimits,
  {df4eff6f-06db-4650-9c3b-30b07c3b692e}, ! Handle
  Fraction,                               ! Name
  0,                                      ! Lower Limit Value
  1,                                      ! Upper Limit Value
  CONTINUOUS;                             ! Numeric Type

OS:Schedule:Day,
  {cd0d5771-9a9c-48eb-b6f3-192194cae36b}, ! Handle
  Office Bldg Light Default Schedule,     ! Name
  {df4eff6f-06db-4650-9c3b-30b07c3b692e}, ! Schedule Type Limits Name
  ,                                       ! Interpolate to Timestep
  5,                                      !- Hour 1
  0,                                      !- Minute 1
  0.05,                                   !- Value Until Time 1
  7,                                      !- Hour 2
  0,                                      !- Minute 2
  0.1,                                    !- Value Until Time 2
  8,                                      !- Hour 3
  0,                                      !- Minute 3
  0.3,                                    !- Value Until Time 3
  17,                                     !- Hour 4
  0,                                      !- Minute 4
  0.9,                                    !- Value Until Time 4
  18,                                     !- Hour 5
  0,                                      !- Minute 5
  0.7,                                    !- Value Until Time 5
  20,                                     !- Hour 6
  0,                                      !- Minute 6
  0.5,                                    !- Value Until Time 6
  22,                                     !- Hour 7
  0,                                      !- Minute 7
  0.3,                                    !- Value Until Time 7
  23,                                     !- Hour 8
  0,                                      !- Minute 8
  0.1,                                    !- Value Until Time 8
  24,                                     !- Hour 9
  0,                                      !- Minute 9
  0.05;                                   !- Value Until Time 9

OS:Schedule:Day,
  {d044b91d-951f-40c5-9cba-e5fe8e398072}, ! Handle
  Office Bldg Light Summer Design Day,    ! Name
  {df4eff6f-06db-4650-9c3b-30b07c3b692e}, ! Schedule Type Limits Name
  ,                                       ! Interpolate to Timestep
  24,                                     ! Hour 1
  0,                                      ! Minute 1
  1;                                      ! Value Until Time 1

OS:Schedule:Day,
  {cb89e185-4f41-42f6-8d6f-bf96b4757d2d}, ! Handle
  Office Bldg Light Winter Design Day,    ! Name
  {df4eff6f-06db-4650-9c3b-30b07c3b692e}, ! Schedule Type Limits Name
  ,                                       ! Interpolate to Timestep
  24,                                     ! Hour 1
  0,                                      ! Minute 1
  0;                                      ! Value Until Time 1

OS:Schedule:Rule,
  {51ac6ff0-5077-4617-84ed-b778be44afb9}, ! Handle
  Office Bldg Light Rule 1,               ! Name
  {3a73eac8-a4f3-4647-96d0-03405c56c643}, ! Schedule Ruleset Name
  0,                                      ! Rule Order
  {dfca7e52-a7f9-4c74-8c0e-340959f72479}, ! Day Schedule Name
  Yes,                                    ! Apply Sunday
  No,                                     ! Apply Monday
  No,                                     ! Apply Tuesday
  No,                                     ! Apply Wednesday
  No,                                     ! Apply Thursday
  No,                                     ! Apply Friday
  No,                                     ! Apply Saturday
  ,                                       ! Apply Holiday
  DateRange,                              ! Date Specification Type
  1,                                      ! Start Month
  1,                                      ! Start Day
  12,                                     ! End Month
  31;                                     ! End Day

OS:Schedule:Day,
  {dfca7e52-a7f9-4c74-8c0e-340959f72479}, ! Handle
  Office Bldg Light Rule 1 Day Schedule,  ! Name
  {df4eff6f-06db-4650-9c3b-30b07c3b692e}, ! Schedule Type Limits Name
  ,                                       ! Interpolate to Timestep
  24,                                     ! Hour 1
  0,                                      ! Minute 1
  0.050000000000000003;                   ! Value Until Time 1

OS:Schedule:Rule,
  {45cf3d6b-90d8-4755-a466-fe8ac820ac1d}, ! Handle
  Office Bldg Light Rule 2,               ! Name
  {3a73eac8-a4f3-4647-96d0-03405c56c643}, ! Schedule Ruleset Name
  1,                                      ! Rule Order
  {decedad1-2a89-4bbd-adac-aeeb03250593}, ! Day Schedule Name
  No,                                     ! Apply Sunday
  No,                                     ! Apply Monday